26
 energy: -39.826943992127 gnorm: 0.000076256414 xtb: 6.6.0 (8843059)
C           -0.52369623259473        2.14281751592119       -0.12958891183442
C           -1.74992351859480        1.25486261808384       -0.31197708172647
C           -1.34123628033336       -0.18839512425042       -0.65714598938684
C           -0.38779723183588       -0.72117019740673        0.44238361234088
O            0.00832028258834       -2.01962261494188        0.24560049582804
O           -1.04175273178593       -0.67995763116989        1.66973782316278
N           -2.45523552276804       -1.10607051012256       -0.78247349915776
C            0.39680019339865        1.52282553233213        0.92243195710531
N            0.79248275246462        0.18297974776223        0.51404891435345
C            1.78540665523677        0.02647990992036       -0.42497627848015
N            2.82836466324503        0.93570657266917       -0.35413350598266
N            1.72725972159199       -0.90927430266063       -1.29416644233306
H            0.01911288963766        2.22319102447727       -1.07457194688462
H           -0.82292389190336        3.14392263214856        0.18522938543254
H           -2.38937523778613        1.64748457877607       -1.10693953486652
H           -2.32452138450277        1.23386624868748        0.61737196065598
H           -0.78313665591396       -0.20369569418908       -1.60123091083008
H           -0.71801594907733       -1.43834044946863        2.17210301672295
H           -2.86146117809452       -1.26852178549772        0.13290520237595
H           -3.16918154568322       -0.70958282136110       -1.38376569900838
H            1.27427402254927        2.14799421578361        1.08164480302326
H           -0.13904604347917        1.41980698927995        1.86853900737303
H            3.65123744333055        0.66558936131809       -0.87139990692345
H            3.03212891741037        1.33949107574472        0.54539607802138
H            2.54911829164310       -0.98080163362259       -1.88300918633522
H            0.57851748137910       -2.01984700050678       -0.55655349415535
