13
 energy: -21.044884176721 gnorm: 0.000077282431 xtb: 6.6.0 (8843059)
C           -1.22080365615835       -1.29849553652794       -0.53205647230572
C           -0.72265159290386       -0.18487952864363        0.39394784521180
C            0.72030185581077        0.14620827364081        0.02585523048691
O            1.07089032196951        1.16484650426879       -0.50912277114546
O            1.57241391829821       -0.82864760461517        0.36011995747612
N           -1.60003890872000        0.96346490109969        0.29983490366046
H           -0.61672989552134       -2.19224947930582       -0.40591702104692
H           -2.25548598194712       -1.52199469671837       -0.29013347049623
H           -1.16792257992860       -0.97440962374794       -1.56930522253458
H           -0.73180687581791       -0.54659667519590        1.42843250848664
H            2.47728122710899       -0.59451680103682        0.09738639025202
H           -1.28435487819364        1.70176233059704        0.92000551315855
H           -1.56905024937825        1.33682109107567       -0.64426985614049
