13
 energy: -21.042307766167 gnorm: 0.000147671223 xtb: 6.6.0 (8843059)
C           -1.19457378764336       -1.31026470879838       -0.55207054332476
C           -0.72506164836338       -0.19315952207751        0.39047986807564
C            0.71055589975316        0.15002133665923        0.03272425785188
O            1.05530323863374        1.15866856038846       -0.52372970595381
O            1.56669712824765       -0.80958151962199        0.39166694415552
N           -1.55720659186838        0.99742974633661        0.33965869486817
H           -2.21487138204514       -1.59082592922639       -0.30150649213648
H           -1.16505460425874       -0.96820566717153       -1.58558124337369
H           -0.55517200120096       -2.18296487876913       -0.45011925212993
H           -0.72298708250334       -0.58017273681757        1.41958553630027
H            2.47208252188495       -0.56652869970072        0.13985135955135
H           -2.36536643684306        0.84943394281725       -0.25336822582023
H           -1.02145595773515        1.76496224883372       -0.05701951484516
