26
 energy: -39.829637544728 gnorm: 0.000077500070 xtb: 6.6.0 (8843059)
C           -0.68442637783455        2.07129297213269       -0.35038822594801
C           -1.92993756579607        1.19364469730245       -0.23367134651236
C           -1.60317196765292       -0.20041006496229        0.30989094592076
C           -0.45019530762088       -0.86403453456765       -0.51094592051274
O           -0.87365668759061       -1.01142862143772       -1.83110018511134
O           -0.14178209857862       -2.10695929094501       -0.01906882778679
N           -1.32017073817865       -0.14888106691902        1.73072986813422
C            0.36630582186790        1.31047806215617       -1.15731356585244
N            0.71443258653649        0.06251738883606       -0.49870760296280
C            1.62752787423263        0.01330438056351        0.51696229562477
N            2.26191328963857        1.18459570021414        0.88437903693133
N            1.87009108893503       -1.10276386030141        1.10665539680784
H           -0.93379823124165        3.00706740130059       -0.85261598869496
H           -0.29495267158748        2.30868166449666        0.64176700021919
H           -2.37489064281313        1.07386030215746       -1.22197158427556
H           -2.66044482756547        1.65571168166611        0.43063539700018
H           -2.47578582208259       -0.84914872479439        0.17879112417541
H            0.68534831205309       -2.01851564802057        0.53885613061844
H           -1.16079046672330       -1.09021530131218        2.07458095471425
H           -0.47344634032200        0.38334380521415        1.90580198360418
H           -0.05880301012374        1.03277059905882       -2.12501359726028
H            1.26248126717500        1.90432003777704       -1.34755273054343
H            3.11850145914952        1.06330111742781        1.40135625856743
H            2.26185024441255        1.97324361326783        0.26140866071080
H            2.56398793430130       -1.04884921200370        1.84091688055234
H           -0.47996412260932       -1.82960825834121       -2.16085113138585
