26
 energy: -39.832502296080 gnorm: 0.000098321914 xtb: 6.6.0 (8843059)
C           -1.03611021549650        2.10477980704751       -0.35411005678159
C           -2.07900404044191        1.07086556192349       -0.75843561188706
C           -1.84991929670848       -0.24051133253887       -0.01070212277958
C           -0.39631165167924       -0.75791426655179       -0.19573429381314
O           -0.22508840171820       -1.16607346954268       -1.51724017914193
O           -0.25051907639598       -1.80998448798148        0.68774003346986
N           -2.21103067643777       -0.09828000398596        1.38604188951296
C            0.35034388240426        1.54039107409358       -0.62540391140026
N            0.56976910512915        0.31164825336988        0.13559946720334
C            1.88264560014118       -0.09058832028760        0.30779958641706
N            2.74954123148997        0.89069788734224        0.73560684772620
N            2.22540245236710       -1.30102051996097        0.07575950254564
H           -1.16624043961446        3.02059347876864       -0.93259820092429
H           -1.14224123481746        2.35121720792029        0.70309388358468
H           -2.00565678886978        0.87770430935599       -1.82901853079964
H           -3.08298637865010        1.42474222322090       -0.52669772494146
H           -2.49010086257614       -1.01836972707076       -0.43841453051697
H            0.67472999230318       -2.12039748557362        0.60007734549942
H           -1.53956089385568        0.50694028704117        1.84831648934102
H           -2.14137385763067       -1.00523158492506        1.83512422928013
H            0.43840496471074        1.31649574031294       -1.69837682803342
H            1.12241858461637        2.26430848742267       -0.36419986991546
H            3.63902875183309        0.56811183468805        1.08206930583651
H            2.36292407653697        1.67628777753235        1.23170682618331
H            3.18835415515508       -1.51464815130140        0.31105051404973
H            0.64436417509865       -1.59149111984629       -1.57330947162624
