26
 energy: -39.828429726794 gnorm: 0.000043400521 xtb: 6.6.0 (8843059)
C           -0.89426187557665        2.27054030033329       -0.21889284122958
C           -2.03720381395763        1.31351482104941        0.08838881871027
C           -1.71742904633049       -0.05089989746640       -0.50987091619373
C           -0.34857321601198       -0.59393322797506       -0.03041774664880
O           -0.09848781915066       -1.68454798378329       -0.85911471615822
O           -0.43987663330079       -0.99903939799624        1.31713427910759
N           -2.70088170081981       -1.03680699427753       -0.07793876256961
C            0.38558329031232        1.71020164897391        0.38265266922609
N            0.69251348641987        0.39851407391383       -0.17194711286672
C            2.03306272936865       -0.01140575055496       -0.06043307684016
N            2.23661776877071       -1.28865995284217        0.43434044182639
N            3.03909183663599        0.64943730544578       -0.44801574193301
H           -0.77719811458545        2.37214980187252       -1.29921542720867
H           -1.09202623679791        3.25526107723722        0.20589713045933
H           -2.97773134126101        1.68046902131366       -0.32661953867307
H           -2.15644260068190        1.20709533062451        1.16855442067658
H           -1.64162540832316        0.03742079340837       -1.60549233495445
H           -1.34989383305743       -1.31272841180104        1.44396800316102
H           -3.63124019583136       -0.75085161905914       -0.36219801408053
H           -2.49406391369382       -1.92437385997963       -0.52644693542499
H            1.23034501430359        2.36908386286471        0.17469057048773
H            0.26896870274745        1.63392816546682        1.47465420941812
H            3.21779426275661       -1.47968984316890        0.57591735027300
H            1.64281023599516       -1.53092547581275        1.21807093744578
H            2.82669782344402        1.52647561487549       -0.90791453124418
H            0.80508812088427       -2.00113741605745       -0.68789331769320
