26
 energy: -39.834233366339 gnorm: 0.000081139602 xtb: 6.6.0 (8843059)
C           -0.90214679243520        2.24145445933548       -0.15144576294160
C           -2.04068780105883        1.27735494040674        0.14632389398239
C           -1.73478709140297       -0.07235877293719       -0.49059481815001
C           -0.36831034400487       -0.63269008716344       -0.00894961011012
O           -0.11210388170577       -1.72851382866561       -0.81108659189463
O           -0.46903954167552       -0.99451621132847        1.33659837301139
N           -2.81140508114395       -1.00452469025450       -0.23531643311308
C            0.38818620393300        1.67006969722001        0.41810473018319
N            0.69375932513051        0.37574204636263       -0.18399507747135
C            1.98972730700376       -0.08940553063174       -0.06443178943676
N            2.97929406083706        0.82343077513577       -0.35829783687087
N            2.21004525165342       -1.29700405042267        0.29871354914423
H           -0.80249786730084        2.37343505461935       -1.23030134113828
H           -1.09147610893746        3.21484924408430        0.30314419907098
H           -2.98745327083236        1.64276520613971       -0.24988743893158
H           -2.14444374436547        1.14252036501270        1.22425449149638
H           -1.64181427212092        0.04390884551280       -1.57620534561864
H            0.36283697103050       -1.43406615994148        1.56984023636009
H           -2.59799829046649       -1.88483060768983       -0.69369864164117
H           -2.84961856752197       -1.19012374746365        0.76318202421318
H            1.22201015334091        2.34994602612708        0.24322863298396
H            0.27195233491658        1.54377820193979        1.50450335634320
H            3.89789351742663        0.43499671056364       -0.50428536545915
H            2.74310988210698        1.58269493469174       -0.97543733758717
H            3.18697574805879       -1.56786320831633        0.27424861173783
H            0.76291025022977       -2.07500293716337       -0.54004004154484
