26
 energy: -39.829961618056 gnorm: 0.000049585653 xtb: 6.6.0 (8843059)
C           -0.77278449345745        2.05975340717393       -0.36620189737919
C           -1.99680322407094        1.14903483506070       -0.35533803524941
C           -1.63999100723828       -0.19208091377633        0.28605705990665
C           -0.45466412240949       -0.86237042291988       -0.46038290781760
O           -0.83732479244483       -1.05793774233844       -1.79137523076073
O           -0.16267947923318       -2.07444495697561        0.10958918841238
N           -1.22923412879852        0.00835334999138        1.66945227628132
C            0.36288218413076        1.33258720333248       -1.08669659248844
N            0.68542984088959        0.07305064029492       -0.44164052010721
C            1.66176768045860       -0.01624181825152        0.50576922767220
N            2.28594413374014        1.15972256155697        0.87702699645894
N            2.04175104559865       -1.17349609560420        0.91385892104827
H           -0.99709737360532        2.99662668888609       -0.87773874951659
H           -0.49245775100436        2.27742574075049        0.66590074419527
H           -2.33182876327071        0.96230780849908       -1.37563053989764
H           -2.81209684862028        1.61138608123088        0.20461400372722
H           -2.48948500769432       -0.88747664552975        0.18310923888889
H            0.77239706038308       -2.02500521265254        0.47649183808602
H           -0.85794145028448       -0.86595396591905        2.02937550616287
H           -2.03592586103910        0.25707955654229        2.23251165807376
H            0.03249134539097        1.08366816555095       -2.09951300477042
H            1.26828008430291        1.93534133476535       -1.15999480492556
H            2.93352032043697        1.06592250976847        1.64416589970181
H            1.72465463410766        1.99383456696040        0.91512249994949
H            2.76399961324058       -1.15580363978912        1.62289136904512
H           -0.34981694566829       -1.82539986233771       -2.11647459303101
