13
 energy: -21.041661409311 gnorm: 0.000052828363 xtb: 6.6.0 (8843059)
C           -0.93977390293634        0.55345507451322        1.05460468285850
C            0.57714380407414        0.82004934433290        0.98434028896666
C            1.24865135776255       -0.51439056609866        0.71024746535328
O            1.68996929588782       -1.24638097304047        1.55318754566434
O            1.24445889587414       -0.83383366714793       -0.58865831486709
N            0.97069441169192        1.79550011973106       -0.01326659189188
H           -1.30048141017629        0.19220287719720        0.09292470006947
H           -1.15802472652936       -0.19068521653294        1.81608514597805
H           -1.46409304091275        1.47369788571365        1.30454580356924
H            0.92636382163530        1.17024610432299        1.96208644246308
H            1.67005317303454       -1.69559117524496       -0.72077078481847
H            0.75788343593162        1.44979721425000       -0.94286639389150
H            0.46385488466272        2.66233297800397        0.12774001054629
