26
 energy: -39.829373968713 gnorm: 0.000049049443 xtb: 6.6.0 (8843059)
C            0.68338078338408        0.59313054157268       -0.55649298970436
C           -0.58270506505317        0.73739950010541       -1.41083772192315
C           -1.78421465422056        0.07390528999166       -0.73330706220524
C           -1.52521246677119       -1.44586279922689       -0.65539794786197
O           -1.79327565630198       -1.95946083735841       -1.91580456944794
O           -2.35598179055775       -2.01402891586386        0.30398414244729
N           -2.01666511326547        0.63986687707806        0.58609881705725
C            0.55795956429683       -0.62310073653349        0.36502846055381
N           -0.11716699797864       -1.69996698418207       -0.33010863534412
C            0.28677173744702       -3.00162901497885       -0.31565247942878
N            1.62016374618013       -3.24460804371911       -0.04828950813551
N           -0.58158448592733       -3.92200220766532       -0.54258722461191
H            1.55224489131585        0.49251992291514       -1.20922003543368
H            0.82385237364519        1.47695592860843        0.06414837473131
H           -0.44897049812798        0.24516386969812       -2.37429849422777
H           -0.80204150847755        1.78972406490508       -1.58979014813512
H           -2.66047473552292        0.16685964220149       -1.39625551698106
H           -2.15957408469096       -2.96857745897600        0.29071853098432
H           -2.48767506912120        1.53316447090649        0.49375338044707
H           -2.62328032521577        0.01439304274913        1.10604797177199
H            1.53237943640271       -0.95361790163194        0.72150998989674
H           -0.05186743287079       -0.34449627907143        1.23057048933989
H            1.92829468367773       -4.18191359763492       -0.25554044341312
H            2.28364223742488       -2.53057087322568       -0.29972472258365
H           -0.19213588748312       -4.85728539000777       -0.57502621020584
H           -1.61446368218727       -2.91776211065883       -1.85742644758654
