13
 energy: -21.040953249938 gnorm: 0.000082702239 xtb: 6.6.0 (8843059)
C           -1.39983529011691       -0.59462975880467       -1.19651207583552
C           -0.66347306582765       -0.48615228623815        0.13741616445193
C            0.77493486860061        0.02768480426965       -0.07917475335927
O            1.44990197041873       -0.28184436860258       -1.01811056922758
O            1.19745245402410        0.82689029237998        0.89507837691758
N           -1.30271809635851        0.37248479768446        1.13254889726273
H           -1.56257056582830        0.39671036011290       -1.61659123798074
H           -0.79582472052128       -1.16604214065569       -1.89509318694869
H           -2.36171542387564       -1.08717949980307       -1.06895885857822
H           -0.55614776928966       -1.48617408188779        0.57648453516735
H            0.45480227152716        0.94265428657393        1.52859176722320
H           -1.65597624669359        1.21446686788253        0.68594666084557
H           -2.08952701394472       -0.09326532205992        1.56830945663327
