  13
        -21.04488418
 C         -1.2207946623       -1.2985011218       -0.5320634079
 C         -0.7226515200       -0.1848841479        0.3939450745
 C          0.7203010613        0.1462115309        0.0258576654
 O          1.0708861827        1.1648534636       -0.5091174679
 O          1.5724172428       -0.8286397011        0.3601244837
 N         -1.6000449660        0.9634558089        0.2998313886
 H         -0.6167165416       -2.1922522319       -0.4059228262
 H         -2.2554773780       -1.5220064051       -0.2901440862
 H         -1.1679123472       -0.9744131759       -1.5693106501
 H         -0.7318086513       -0.5466028687        1.4284293334
 H          2.4772841254       -0.5945035257        0.0973943238
 H         -1.2843671790        1.7017536341        0.9200040948
 H         -1.5690553584        1.3368139640       -0.6442730660
