  13
  -21.0448841800000       0.124291772053406      !mtd8
 C         -1.2207946623       -1.2985011218       -0.5320634079
 C         -0.7226515200       -0.1848841479        0.3939450745
 C          0.7203010613        0.1462115309        0.0258576654
 O          1.0708861827        1.1648534636       -0.5091174679
 O          1.5724172428       -0.8286397011        0.3601244837
 N         -1.6000449660        0.9634558089        0.2998313886
 H         -0.6167165416       -2.1922522319       -0.4059228262
 H         -2.2554773780       -1.5220064051       -0.2901440862
 H         -1.1679123472       -0.9744131759       -1.5693106501
 H         -0.7318086513       -0.5466028687        1.4284293334
 H          2.4772841254       -0.5945035257        0.0973943238
 H         -1.2843671790        1.7017536341        0.9200040948
 H         -1.5690553584        1.3368139640       -0.6442730660
  13
  -21.0448841800000       0.124291772053406      !mtd12
 C         -1.2206501210       -1.2988408824       -0.5313835631
 C         -0.7226386248       -0.1846935203        0.3940554936
 C          0.7203394533        0.1463018285        0.0259450105
 O          1.0710414831        1.1652988828       -0.5084248644
 O          1.5721871411       -0.8290155603        0.3593415205
 N         -1.6001408359        0.9635408136        0.2991619870
 H         -2.2551662532       -1.5227527215       -0.2890392513
 H         -1.1681976849       -0.9752163562       -1.5687873465
 H         -0.6161544190       -2.1922906312       -0.4050003078
 H         -0.7319540805       -0.5457033581        1.4287884978
 H          2.4771701276       -0.5953174742        0.0965966266
 H         -1.5690018627        1.3363542981       -0.6452021814
 H         -1.2845631266        1.7021312685        0.9190997334
  13
  -21.0448841700000       0.124290456811136      !md8
 C         -1.2207446700       -1.2980988152       -0.5327055459
 C         -0.7226233226       -0.1850316698        0.3940085396
 C          0.7202986926        0.1461356887        0.0258315623
 O          1.0707060215        1.1644853037       -0.5098280042
 O          1.5724619260       -0.8283868261        0.3607652117
 N         -1.6000053351        0.9633573576        0.3003672540
 H         -2.2553852724       -1.5218821303       -0.2908455939
 H         -1.1679921065       -0.9733573007       -1.5697588230
 H         -0.6165614266       -2.1918665906       -0.4071635145
 H         -0.7317823915       -0.5472459091        1.4283059461
 H          2.4773444755       -0.5946420952        0.0977534102
 H         -1.2851708477        1.7008621459        0.9219862856
 H         -1.5678094811        1.3379870378       -0.6432322963
  13
  -21.0448841400000       0.124286511168299      !mtd1
 C         -1.2208762050       -1.2979606252       -0.5329335863
 C         -0.7225932575       -0.1851301063        0.3939719657
 C          0.7203141552        0.1461160376        0.0258470319
 O          1.0706411043        1.1643827032       -0.5100849204
 O          1.5725638869       -0.8282681642        0.3610627808
 N         -1.5999593259        0.9633028207        0.3005816883
 H         -1.1661895881       -0.9738654750       -1.5700821270
 H         -0.6181418692       -2.1925071206       -0.4060570269
 H         -2.2561675275       -1.5201187520       -0.2923852817
 H         -0.7317748326       -0.5475623967        1.4281896280
 H          2.4774309024       -0.5945059387        0.0980064286
 H         -1.2845802612        1.7009055353        0.9218565561
 H         -1.5681363523        1.3377726859       -0.6431390386
  13
  -21.0448841400000       0.124286511168299      !mtd1
 C         -1.2207554977       -1.2989202346       -0.5313538609
 C         -0.7226620845       -0.1847056189        0.3939345520
 C          0.7203837073        0.1462877323        0.0258653001
 O          1.0710468357        1.1652994369       -0.5083469174
 O          1.5721994095       -0.8289255031        0.3593984160
 N         -1.6000584228        0.9635497362        0.2992201395
 H         -0.6159717321       -2.1922426613       -0.4054080839
 H         -2.2551152117       -1.5231054773       -0.2885796868
 H         -1.1689046790       -0.9751241991       -1.5687593905
 H         -0.7317729562       -0.5457085431        1.4286826834
 H          2.4772839301       -0.5951055354        0.0971550681
 H         -1.5702864391        1.3354750053       -0.6454464765
 H         -1.2835172594        1.7027118633        0.9179002115
  13
  -21.0448840800000       0.124278620257920      !mtd2
 C         -1.2208587125       -1.2985236241       -0.5317314266
 C         -0.7226206697       -0.1848604611        0.3941083083
 C          0.7204459008        0.1461927606        0.0259532582
 O          1.0707490371        1.1650521347       -0.5087270310
 O          1.5723685391       -0.8287874966        0.3596471899
 N         -1.6000151746        0.9634370315        0.2992688966
 H         -1.1681315683       -0.9744891989       -1.5689679614
 H         -0.6166706217       -2.1921540447       -0.4056348435
 H         -2.2555224917       -1.5220570653       -0.2896683436
 H         -0.7318606477       -0.5462702022        1.4286831477
 H          2.4774368463       -0.5954832305        0.0969339060
 H         -1.5660631084        1.3380113507       -0.6442403404
 H         -1.2860359702        1.7008946974        0.9212266567
  13
  -21.0430198900000       1.728518439150424E-002 !md8
 C         -1.2134016182       -1.3454088655       -0.5179521819
 C         -0.7102573056       -0.2408398697        0.4175721621
 C          0.7583462140        0.0152795526        0.0873351046
 O          1.6585128876       -0.7475456559        0.3145084719
 O          0.9536080704        1.1994739031       -0.5118631063
 N         -1.5748063101        0.9159092002        0.3222763292
 H         -2.2430846447       -1.5818458546       -0.2677305024
 H         -1.1737409033       -1.0088973001       -1.5519351294
 H         -0.5983994559       -2.2340930379       -0.4099540784
 H         -0.7456178869       -0.6104101489        1.4497889212
 H          1.8926795580        1.3177014044       -0.7236216363
 H         -1.2563827436        1.6559872987        0.9376683054
 H         -1.5684369118        1.2803538083       -0.6246014799
  13
  -21.0430197900000       1.728335537896144E-002 !mtd13
 C         -1.2056983796       -1.3691523263       -0.4677667906
 C         -0.7129598049       -0.2237855150        0.4232534137
 C          0.7576050809        0.0214287301        0.0935727994
 O          1.6592707600       -0.7225024273        0.3717367308
 O          0.9527562784        1.1708734843       -0.5698619277
 N         -1.5791852093        0.9254996128        0.2701978260
 H         -1.1553978916       -1.0786155069       -1.5151517090
 H         -0.5916524841       -2.2517925322       -0.3142058109
 H         -2.2378697185       -1.5951041015       -0.2179978409
 H         -0.7561450463       -0.5482259143        1.4701983550
 H          1.8931662765        1.2818366011       -0.7795918000
 H         -1.2668148777        1.6930837314        0.8542135441
 H         -1.5666862987        1.2472378225       -0.6919764338
  13
  -21.0430197000000       1.728170943315885E-002 !mtd12
 C         -1.2009250280       -1.3827554527       -0.4358626479
 C         -0.7147117085       -0.2128100750        0.4264212165
 C          0.7570438869        0.0253329669        0.0971378518
 O          1.6591896962       -0.7053508887        0.4069536197
 O          0.9528574377        1.1511988507       -0.6054137773
 N         -1.5819302933        0.9303794789        0.2372549698
 H         -1.1474491992       -1.1196969227       -1.4903246669
 H         -0.5851328245       -2.2593530251       -0.2567371529
 H         -2.2334292080       -1.6049359825       -0.1840967059
 H         -0.7629035381       -0.5087068451        1.4815004684
 H          1.8941771973        1.2574551608       -0.8134796772
 H         -1.5623848009        1.2274358519       -0.7326959602
 H         -1.2757669598        1.7132459135        0.8040116432
  13
  -21.0430196600000       1.728097795201343E-002 !mtd6
 C         -1.2199462595       -1.3243180121       -0.5583950789
 C         -0.7081107351       -0.2547186803        0.4122637613
 C          0.7589369685        0.0104934297        0.0817898548
 O          1.6574675662       -0.7656167731        0.2664789370
 O          0.9546622381        1.2205587120       -0.4628924614
 N         -1.5708539342        0.9062880141        0.3648439012
 H         -0.6059016175       -2.2173141937       -0.4864290593
 H         -2.2483332795       -1.5677034815       -0.3094961878
 H         -1.1867901528       -0.9512756796       -1.5800272712
 H         -0.7370607451       -0.6609376242        1.4308738540
 H          1.8926122447        1.3452944038       -0.6759234832
 H         -1.2462954658        1.6233390928        1.0038384264
 H         -1.5709089855        1.3043497826       -0.5684253451
  13
  -21.0430196300000       1.728042936148905E-002 !gc
 C         -1.2189200397       -1.3279457296       -0.5516268404
 C         -0.7083999234       -0.2525039406        0.4132202429
 C          0.7588471584        0.0112886910        0.0829642276
 O          1.6578691824       -0.7626117249        0.2744826798
 O          0.9543105657        1.2172393191       -0.4712103349
 N         -1.5715325003        0.9079174519        0.3577348511
 H         -0.6061299248       -2.2211499959       -0.4721023457
 H         -2.2481987411       -1.5686172117       -0.3038320413
 H         -1.1826917804       -0.9619581212       -1.5756715482
 H         -0.7385987558       -0.6525310229        1.4342526183
 H          1.8924349404        1.3406480336       -0.6841596192
 H         -1.5713650299        1.2996812898       -0.5781886072
 H         -1.2472043881        1.6293863159        0.9918436304
  13
  -21.0430196000000       1.727988078837986E-002 !gc
 C         -1.2007355661       -1.3817941513       -0.4378886386
 C         -0.7146605238       -0.2133012635        0.4265095009
 C          0.7571147806        0.0252034465        0.0972499706
 O          1.6590502207       -0.7067913792        0.4047448139
 O          0.9526845402        1.1524166882       -0.6034188647
 N         -1.5818412842        0.9301514638        0.2393214664
 H         -2.2335884415       -1.6039542694       -0.1874550319
 H         -1.1460906238       -1.1172308814       -1.4919538815
 H         -0.5854617909       -2.2589195809       -0.2594892776
 H         -0.7628300654       -0.5110253554        1.4810730300
 H          1.8936026433        1.2589063572       -0.8130904267
 H         -1.5638463066        1.2276833139       -0.7304981444
 H         -1.2746656729        1.7126288697        0.8060243583
  13
  -21.0428809300000       1.492149791017982E-002 !mtd1
 C         -1.2012812138       -1.2276910161       -0.6964519771
 C         -0.7222703664       -0.2342533534        0.3809524563
 C          0.7054883088        0.1379366438        0.0278520350
 O          1.0214582571        1.0602010010       -0.6735811983
 O          1.5909337805       -0.7177546443        0.5448266187
 N         -1.5116501333        0.9768812181        0.4742490345
 H         -2.2250190299       -1.5304424746       -0.4860802059
 H         -1.1666039030       -0.7586073735       -1.6784236565
 H         -0.5702246720       -2.1125542320       -0.7045602820
 H         -0.7243661135       -0.7337335806        1.3564874416
 H          2.4924860725       -0.4755599310        0.2776350779
 H         -1.2525401945        1.6096100155       -0.2765521460
 H         -2.5000733553        0.7676715381        0.3925990608
  13
  -21.0428809200000       1.492134001253713E-002 !mtd1
 C         -1.2012979380       -1.2276242155       -0.6965964380
 C         -0.7222854978       -0.2343042643        0.3809160168
 C          0.7054544908        0.1379219915        0.0278184614
 O          1.0214808415        1.0601094697       -0.6737486377
 O          1.5909375242       -0.7176548468        0.5450061022
 N         -1.5116246240        0.9768408441        0.4744246338
 H         -0.5705577055       -2.1127266382       -0.7045075245
 H         -2.2252076325       -1.5299831782       -0.4864797928
 H         -1.1662019056       -0.7585680219       -1.6785656237
 H         -0.7243291111       -0.7339204251        1.3563854433
 H          2.4924655336       -0.4754325906        0.2777600320
 H         -1.2524569859        1.6097281331       -0.2762094512
 H         -2.5000431978        0.7677017948        0.3926465863
  13
  -21.0428808900000       1.492086632946583E-002 !mtd1
 C         -1.2014683419       -1.2277501494       -0.6964533353
 C         -0.7222464684       -0.2343291888        0.3808346921
 C          0.7055352074        0.1378859075        0.0277334147
 O          1.0214826001        1.0602601681       -0.6735355887
 O          1.5909706470       -0.7176402668        0.5448959197
 N         -1.5115260433        0.9768621578        0.4742538824
 H         -0.5702549935       -2.1125169131       -0.7050231609
 H         -2.2250475005       -1.5307029451       -0.4856711386
 H         -1.1673219062       -0.7584869793       -1.6783532410
 H         -0.7241941472       -0.7337580656        1.3564007396
 H          2.4925375635       -0.4752403303        0.2778756837
 H         -2.5000954207        0.7676163325        0.3940054167
 H         -1.2532745915        1.6091959181       -0.2771873247
  13
  -21.0428808300000       1.491991900854664E-002 !mtd1
 C         -1.2011598853       -1.2273698986       -0.6969176245
 C         -0.7223141221       -0.2343466742        0.3810181267
 C          0.7053746300        0.1378030308        0.0279540227
 O          1.0212431116        1.0596347688       -0.6740019573
 O          1.5910522187       -0.7174000320        0.5452298317
 N         -1.5116006649        0.9768777649        0.4746857145
 H         -1.1648982510       -0.7584079586       -1.6788752648
 H         -0.5710509393       -2.1129059446       -0.7043672141
 H         -2.2254465789       -1.5289995613       -0.4877117156
 H         -0.7245359095       -0.7342026434        1.3563640934
 H          2.4922572110       -0.4750231293        0.2770363436
 H         -2.4999142982        0.7678983771        0.3915587795
 H         -1.2514744885        1.6103096911       -0.2751386172
  13
  -21.0428808300000       1.491991900854664E-002 !mtd6
 C         -1.2012919149       -1.2273193267       -0.6968672919
 C         -0.7222581600       -0.2343446033        0.3809322844
 C          0.7055317058        0.1380449553        0.0281326984
 O          1.0213291446        1.0597076766       -0.6740945423
 O          1.5910181974       -0.7174960164        0.5451852729
 N         -1.5116516292        0.9767391929        0.4746447999
 H         -1.1649722726       -0.7584471465       -1.6788781028
 H         -0.5712849467       -2.1129318759       -0.7041045131
 H         -2.2256362721       -1.5287953149       -0.4875556091
 H         -0.7243575771       -0.7342018294        1.3562730085
 H          2.4924976964       -0.4756380370        0.2774351904
 H         -1.2523392529        1.6098553963       -0.2757647721
 H         -2.5000533790        0.7676093628        0.3925007214
  13
  -21.0428807500000       1.491865600745262E-002 !md2
 C         -1.2013264718       -1.2278738905       -0.6960565490
 C         -0.7222819156       -0.2341975784        0.3810416169
 C          0.7055098728        0.1378780523        0.0279807236
 O          1.0213736404        1.0604374092       -0.6731607540
 O          1.5909742740       -0.7180538201        0.5444386362
 N         -1.5118280424        0.9769812848        0.4738535104
 H         -2.2249242724       -1.5308316065       -0.4852826842
 H         -1.1670503185       -0.7589698503       -1.6781254654
 H         -0.5700479795       -2.1126002354       -0.7041513436
 H         -0.7244742472       -0.7335044480        1.3566943027
 H          2.4924489856       -0.4757051574        0.2771352432
 H         -2.4997905590        0.7683287757        0.3866163013
 H         -1.2489100187        1.6114850907       -0.2741081362
  13
  -21.0423077700000       8.135913529192445E-003 !md2
 C         -1.1945654780       -1.3102701184       -0.5520768714
 C         -0.7250620070       -0.1931644621        0.3904767830
 C          0.7105551238        0.1500252563        0.0327272361
 O          1.0552993125        1.1586754724       -0.5237243898
 O          1.5666996970       -0.8095741508        0.3916709608
 N         -1.5572128508        0.9974214509        0.3396550582
 H         -2.2148624601       -1.5908366989       -0.3015171960
 H         -1.1650435806       -0.9682088785       -1.5855869340
 H         -0.5551586864       -2.1829671835       -0.4501245811
 H         -0.7229893178       -0.5801788349        1.4195818295
 H          2.4720848272       -0.5665155960        0.1398594356
 H         -2.3653703879        0.8494221952       -0.2533748289
 H         -1.0214648261        1.7649568627       -0.0570201260
  13
  -21.0423074900000       8.133503259385395E-003 !mtd10
 C         -1.1947713921       -1.3115765153       -0.5492394224
 C         -0.7251055811       -0.1925111870        0.3904061406
 C          0.7107542387        0.1502585629        0.0327071124
 O          1.0561840567        1.1603327445       -0.5208256618
 O          1.5663439124       -0.8109876263        0.3887820978
 N         -1.5581794571        0.9975119390        0.3370976277
 H         -2.2143939629       -1.5929489435       -0.2968076029
 H         -1.1671936687       -0.9713483387       -1.5834669526
 H         -0.5542065491       -2.1834721084       -0.4468170577
 H         -0.7229875092       -0.5770510242        1.4204469849
 H          2.4717902680       -0.5681465689        0.1369786514
 H         -1.0197111836        1.7672783011       -0.0516015319
 H         -2.3604653924        0.8512358945       -0.2642629251
  13
  -21.0416614100000       4.105441187525788E-003 !input
 C         -1.0694498659       -1.4553547747        0.4499352666
 C         -0.7678163387        0.0558825270        0.4027252774
 C          0.7191598869        0.2019430148        0.1300592254
 O          1.5618094237        0.3347969280        0.9746964626
 O          1.0146504587        0.1021631182       -1.1706885966
 N         -1.5346666667        0.7916289059       -0.5832888317
 H         -0.8641099441       -1.9076828421       -0.5189175630
 H         -0.4547155970       -1.9402523948        1.2037294730
 H         -2.1170605167       -1.6140811402        0.6980198520
 H         -0.9670111640        0.4932513830        1.3874128891
 H          1.9720158307        0.1882926813       -1.3019991724
 H         -1.2901652607        0.4822580313       -1.5178807805
 H         -2.5262215884        0.6314978001       -0.4442023047
  13
  -21.0416613900000       4.105354301319728E-003 !mtd2
 C         -1.0694795205       -1.4551675077        0.4505722692
 C         -0.7678533381        0.0560060164        0.4026513614
 C          0.7191394707        0.2021989123        0.1300034672
 O          1.5616650383        0.3365223797        0.9745332752
 O          1.0148513002        0.1004797199       -1.1705413944
 N         -1.5346393885        0.7912158444       -0.5838287264
 H         -2.1165994627       -1.6139526069        0.7006674906
 H         -0.8659297096       -1.9074787254       -0.5186623886
 H         -0.4532920029       -1.9400381931        1.2031896716
 H         -0.9671956673        0.4938787135        1.3870846333
 H          1.9722144169        0.1866751375       -1.3018174051
 H         -1.2904662380        0.4809064532       -1.5181920098
 H         -2.5262372414        0.6316127280       -0.4443967396
  13
  -21.0416613900000       4.105354301319728E-003 !mtd9
 C         -1.0694485217       -1.4552319083        0.4502205155
 C         -0.7678324122        0.0559589257        0.4026866365
 C          0.7191550309        0.2019920733        0.1300131623
 O          1.5616754940        0.3358145856        0.9745169632
 O          1.0148099327        0.1011912097       -1.1705306116
 N         -1.5346532505        0.7914219657       -0.5835526839
 H         -0.4545576340       -1.9398972740        1.2040495391
 H         -2.1170304137       -1.6140776478        0.6984350547
 H         -0.8641110867       -1.9076562432       -0.5185860937
 H         -0.9671361831        0.4935642867        1.3872376667
 H          1.9722224656        0.1871735518       -1.3015863878
 H         -1.2907819559        0.4811760451       -1.5179959319
 H         -2.5262319721        0.6321911697       -0.4437730670
  13
  -21.0416613500000       4.105180534393199E-003 !gc
 C         -1.0693481732       -1.4550180725        0.4511712117
 C         -0.7678743146        0.0561949901        0.4025982592
 C          0.7190674949        0.2025830245        0.1299404081
 O          1.5614608189        0.3382112666        0.9743339085
 O          1.0149816293        0.0986781754       -1.1703721180
 N         -1.5346230345        0.7908714252       -0.5843050827
 H         -2.1171604699       -1.6136226617        0.6984581977
 H         -0.8631002776       -1.9083727450       -0.5169985692
 H         -0.4552537586       -1.9390264960        1.2060527013
 H         -0.9673181368        0.4945263522        1.3868030543
 H          1.9723550910        0.1846519535       -1.3017126293
 H         -2.5262146441        0.6312465933       -0.4448759090
 H         -1.2903255906        0.4801650233       -1.5185092881
  13
  -21.0416613300000       4.105093653703516E-003 !mtd1
 C         -1.0698814105       -1.4549648187        0.4517789672
 C         -0.7678381949        0.0560630368        0.4025187604
 C          0.7191189798        0.2023477848        0.1299144841
 O          1.5612466248        0.3401039151        0.9742869394
 O          1.0152896338        0.0973910833       -1.1701619634
 N         -1.5342865145        0.7904637687       -0.5849568440
 H         -0.8640623020       -1.9087045112       -0.5163275917
 H         -0.4559070531       -1.9390369460        1.2066869695
 H         -2.1177796689       -1.6129684272        0.6992834611
 H         -0.9673577923        0.4950304748        1.3863833438
 H          1.9725582991        0.1849246213       -1.3012678686
 H         -2.5258676498        0.6304491750       -0.4461126311
 H         -1.2894568148        0.4796673681       -1.5189472886
  13
  -21.0416612600000       4.104789585746102E-003 !mtd10
 C         -1.0694130424       -1.4560727724        0.4468004406
 C         -0.7676236056        0.0552324261        0.4030678242
 C          0.7193249226        0.2010906986        0.1302557753
 O          1.5627509723        0.3264648279        0.9752685040
 O          1.0138225066        0.1100967189       -1.1712289448
 N         -1.5350736059        0.7934594016       -0.5805840593
 H         -0.4533148410       -1.9430123746        1.1981745143
 H         -2.1166868878       -1.6154935910        0.6961460761
 H         -0.8657393681       -1.9057905027       -0.5236900829
 H         -0.9662668429        0.4900450942        1.3890111877
 H          1.9711721709        0.1956755485       -1.3027780032
 H         -2.5265266390        0.6323105260       -0.4416955073
 H         -1.2907561618        0.4868967174       -1.5161639441
  13
  -21.0409532500000       1.940492785243140E-003 !hor
 C         -1.3998280138       -0.5946353317       -1.1965184120
 C         -0.6634714854       -0.4861564048        0.1374133474
 C          0.7749349459        0.0276887352       -0.0791724317
 O          1.4499074522       -0.2818352345       -1.0181058233
 O          1.1974447822        0.8268953907        0.8950840716
 N         -1.3027244693        0.3724761009        1.1325449388
 H         -1.5625674575        0.3967052232       -1.6165958395
 H         -0.7958118007       -1.1660426191       -1.8950982540
 H         -2.3617062909       -1.0871897582       -1.0689690974
 H         -0.5561416085       -1.4861778993        0.5764797798
 H          0.4547923760        0.9426539233        1.5285953258
 H         -1.6559846283        1.2144565259        0.6859425217
 H         -2.0895315438       -0.0932786151        1.5683022032
  13
  -21.0409532300000       1.940451717285216E-003 !hor
 C         -1.3998462557       -0.5945563809       -1.1965281830
 C         -0.6635168826       -0.4862513570        0.1374425826
 C          0.7749492120        0.0276212826       -0.0791323192
 O          1.4498525052       -0.2815543898       -1.0182692219
 O          1.1974711273        0.8267316805        0.8951722082
 N         -1.3026761759        0.3724591060        1.1325057729
 H         -0.7957318059       -1.1659710590       -1.8950134514
 H         -2.3617527684       -1.0870759892       -1.0691410573
 H         -1.5624791836        0.3967924525       -1.6166469863
 H         -0.5562634638       -1.4862908472        0.5764568289
 H          0.4549224125        0.9423789380        1.5289061263
 H         -1.6565157158        1.2141230818        0.6858021158
 H         -2.0887591592       -0.0934585030        1.5693220919
  13
  -21.0409531700000       1.940328518640856E-003 !gc
 C         -1.3995865472       -0.5949488319       -1.1963663837
 C         -0.6634339079       -0.4862603550        0.1376416831
 C          0.7751053475        0.0275927462       -0.0790284855
 O          1.4506009989       -0.2837276641       -1.0170419374
 O          1.1965820841        0.8289222846        0.8938120142
 N         -1.3028217942        0.3727329938        1.1323570832
 H         -2.3614151141       -1.0876849523       -1.0690862187
 H         -1.5624317275        0.3963523439       -1.6165132492
 H         -0.7952649132       -1.1662211191       -1.8947787252
 H         -0.5560628932       -1.4861412472        0.5769794408
 H          0.4531497547        0.9455290722        1.5264081430
 H         -2.0880902137       -0.0937433248        1.5702397341
 H         -1.6581542018        1.2134500864        0.6850745130
  13
  -21.0409531600000       1.940307986291502E-003 !gc
 C         -1.3995350928       -0.5949276642       -1.1963547121
 C         -0.6634321609       -0.4862411025        0.1376709033
 C          0.7750761360        0.0276317694       -0.0790726803
 O          1.4506414262       -0.2837964107       -1.0170058039
 O          1.1965981889        0.8289163427        0.8937807625
 N         -1.3029017848        0.3727458969        1.1323498332
 H         -0.7951244547       -1.1661141103       -1.8947580285
 H         -2.3613201798       -1.0877561045       -1.0691255609
 H         -1.5624468956        0.3963813512       -1.6164688188
 H         -0.5560617697       -1.4861143225        0.5770327707
 H          0.4530958099        0.9457632221        1.5262516432
 H         -2.0879624998       -0.0938556316        1.5704396211
 H         -1.6585209717        1.2132960322        0.6850146305
  13
  -21.0409531600000       1.940307986291502E-003 !gc
 C         -1.3996705826       -0.5948710045       -1.1963873045
 C         -0.6634290336       -0.4862977829        0.1375691439
 C          0.7751172620        0.0275907613       -0.0790219378
 O          1.4504632897       -0.2833187615       -1.0172756115
 O          1.1966871525        0.8285762825        0.8940635850
 N         -1.3027281769        0.3726532706        1.1323844359
 H         -1.5627766525        0.3965045765       -1.6162788450
 H         -0.7951977342       -1.1658037252       -1.8949489123
 H         -2.3613696800       -1.0878943697       -1.0692113257
 H         -0.5560282859       -1.4861967491        0.5768658969
 H          0.4532051914        0.9452046440        1.5266004092
 H         -2.0877982240       -0.0939356915        1.5704866193
 H         -1.6582854061        1.2133138198        0.6851813063
  13
  -21.0409531500000       1.940287454159417E-003 !gc
 C         -1.3995060473       -0.5949948556       -1.1963197123
 C         -0.6634186787       -0.4862696508        0.1377069697
 C          0.7751166556        0.0275865166       -0.0790265804
 O          1.4507706699       -0.2841747836       -1.0167841850
 O          1.1964281364        0.8293455310        0.8935175293
 N         -1.3029115884        0.3728026406        1.1323048539
 H         -2.3613744444       -1.0876367797       -1.0690110677
 H         -1.5622327285        0.3962985125       -1.6165413042
 H         -0.7952123438       -1.1663900877       -1.8946522586
 H         -0.5560593793       -1.4861308925        0.5770760094
 H          0.4529147851        0.9461505845        1.5259817816
 H         -1.6587090868        1.2132339369        0.6848626442
 H         -2.0878733884       -0.0938398546        1.5705598629
  13
  -21.0400819800000       7.717987374666972E-004 !hor
 C         -1.1121700631       -1.4927229657       -0.1081065005
 C         -0.7056839871       -0.1395929431        0.4762789124
 C          0.7733107643        0.0928201538        0.1145423605
 O          1.6810631866       -0.4121423760        0.7100644019
 O          0.9318533256        0.8809746734       -0.9424968909
 N         -1.4906095079        0.9323086657       -0.1336459344
 H         -0.4452635713       -2.2660059718        0.2624322039
 H         -2.1321656434       -1.7407663151        0.1794372571
 H         -1.0499316851       -1.4635497008       -1.1939975565
 H         -0.7868191772       -0.1812480553        1.5719229623
 H          0.0365995302        1.1860588320       -1.2151388038
 H         -2.4557452818        0.6495256186       -0.2582588650
 H         -1.4815534692        1.7634806489        0.4480583462
  13
  -21.0400819800000       7.717987374666972E-004 !hor
 C         -1.1119734717       -1.4928283401       -0.1071397387
 C         -0.7057648341       -0.1392180579        0.4763578379
 C          0.7732518382        0.0929732144        0.1146767359
 O          1.6810248324       -0.4112813607        0.7107841256
 O          0.9318779002        0.8799771019       -0.9432917457
 N         -1.4906902808        0.9321316312       -0.1345712891
 H         -1.0493458526       -1.4644656754       -1.1930300603
 H         -0.4451364967       -2.2657709742        0.2642281369
 H         -2.1320527172       -1.7407242153        0.1802176780
 H         -0.7871376202       -0.1800095307        1.5719957023
 H          0.0367083287        1.1847110190       -1.2164783241
 H         -2.4559502486        0.6494148341       -0.2586809505
 H         -1.4813005569        1.7639317997        0.4461929297
  13
  -21.0400819400000       7.717660696205736E-004 !hor
 C         -1.1131975708       -1.4916318356       -0.1167644610
 C         -0.7051340692       -0.1426401688        0.4759961480
 C          0.7735245677        0.0915548374        0.1140234278
 O          1.6817188864       -0.4199966002        0.7032506456
 O          0.9314086216        0.8895202827       -0.9357839114
 N         -1.4904449493        0.9338077840       -0.1253349032
 H         -2.1329814592       -1.7409383419        0.1704353365
 H         -1.0522818065       -1.4554399669       -1.2025138442
 H         -0.4462939245       -2.2676847614        0.2478935387
 H         -0.7847051219       -0.1916588651        1.5714612345
 H          0.0359862971        1.1977045514       -1.2044487852
 H         -2.4554182423        0.6516715655       -0.2524007723
 H         -1.4816777386        1.7604218162        0.4628602642
  13
  -21.0400819000000       7.717334031571787E-004 !gc
 C         -1.1114112812       -1.4934958068       -0.1007981192
 C         -0.7061775995       -0.1369481194        0.4765187415
 C          0.7730226528        0.0938536646        0.1150602096
 O          1.6804776956       -0.4054932447        0.7157408348
 O          0.9324472121        0.8736349454       -0.9481337397
 N         -1.4908557227        0.9308893003       -0.1407145459
 H         -2.1319619375       -1.7399498035        0.1860981123
 H         -1.0470649639       -1.4705728399       -1.1867075341
 H         -0.4451962589       -2.2645590589        0.2755252179
 H         -0.7886571362       -0.1723578539        1.5723231887
 H          0.0375442194        1.1757749033       -1.2247919108
 H         -1.4793358390        1.7668267165        0.4342175580
 H         -2.4566456310        0.6483959722       -0.2607276348
  13
  -21.0400818900000       7.717252367566486E-004 !gc
 C         -1.1113907626       -1.4935255984       -0.1006241741
 C         -0.7061917286       -0.1368912026        0.4765206206
 C          0.7730123094        0.0938794682        0.1150735156
 O          1.6804588060       -0.4053268789        0.7158761608
 O          0.9324558802        0.8734587507       -0.9482661808
 N         -1.4908465807        0.9308652106       -0.1408804394
 H         -0.4451994888       -2.2645415801        0.2758320891
 H         -2.1319560821       -1.7399366371        0.1862529446
 H         -1.0469975729       -1.4707565106       -1.1865337845
 H         -0.7887066218       -0.1721587641        1.5723272824
 H          0.0375672221        1.1755384934       -1.2250182658
 H         -1.4792943082        1.7668974645        0.4339040316
 H         -2.4566483659        0.6483756207       -0.2608215237
  13
  -21.0400811600000       7.711293229175625E-004 !gc
 C         -1.1090603413       -1.4957883338       -0.0804614489
 C         -0.7074839129       -0.1298381819        0.4770414698
 C          0.7725929315        0.0969617830        0.1164323826
 O          1.6792835530       -0.3864116320        0.7311186271
 O          0.9333379229        0.8531337377       -0.9635100399
 N         -1.4913204802        0.9269048376       -0.1599962964
 H         -1.0372195594       -1.4909320623       -1.1661846758
 H         -0.4457290238       -2.2606931090        0.3131805724
 H         -2.1316875446       -1.7371844746        0.2033517568
 H         -0.7936585993       -0.1481350637        1.5729345645
 H          0.0385454327        1.1488343454       -1.2478623348
 H         -1.4806636954        1.7728368954        0.4001123540
 H         -2.4569569234        0.6422904919       -0.2765925443
  13
  -21.0399168200000       6.480399549023059E-004 !mtd2
 C         -1.4457449667       -0.5186544582       -1.1802997034
 C         -0.6716926135       -0.4781376631        0.1344877188
 C          0.7381127978        0.0475119988       -0.0960477115
 O          1.3264404299        0.0168035895       -1.1418140043
 O          1.3036887659        0.5032630598        1.0290999148
 N         -1.3698263009        0.3539153069        1.0983070389
 H         -1.6672671019        0.4962404366       -1.4974201174
 H         -0.8495269991       -1.0063772713       -1.9455328359
 H         -2.3795664237       -1.0591376326       -1.0508915212
 H         -0.5177060806       -1.5193614486        0.4908877820
 H          2.2022732793        0.8196310415        0.8443618152
 H         -2.2518453199       -0.0732210564        1.3566292208
 H         -0.8134454340        0.4807949089        1.9354882392
  13
  -21.0399168100000       6.480330974150843E-004 !mtd8
 C         -1.4457981703       -0.5184874135       -1.1803621446
 C         -0.6716771411       -0.4780989319        0.1344174893
 C          0.7380821764        0.0474700595       -0.0960818115
 O          1.3267907147        0.0158678655       -1.1415866113
 O          1.3034062138        0.5042618131        1.0288938562
 N         -1.3698421313        0.3536761590        1.0984781646
 H         -2.3788024607       -1.0605731144       -1.0515754581
 H         -1.6688388141        0.4964125991       -1.4963415134
 H         -0.8487647283       -1.0044984135       -1.9460985938
 H         -0.5177522113       -1.5194508276        0.4904864101
 H          2.2021789435        0.8200023183        0.8439142906
 H         -2.2517409736       -0.0735991547        1.3568339939
 H         -0.8134044820        0.4806460446        1.9355740568
  13
  -21.0399167500000       6.479919540034146E-004 !gc
 C         -1.4459136298       -0.5188804344       -1.1802553138
 C         -0.6716744244       -0.4779063938        0.1344114029
 C          0.7379919185        0.0478342611       -0.0962083579
 O          1.3264560585        0.0172637709       -1.1418098375
 O          1.3039748670        0.5026973097        1.0292574462
 N         -1.3699132236        0.3539508013        1.0982900530
 H         -0.8490277949       -1.0055769778       -1.9456440789
 H         -2.3790530988       -1.0606433827       -1.0510940402
 H         -1.6686668159        0.4958504614       -1.4969559709
 H         -0.5173471787       -1.5191589826        0.4907103291
 H          2.2028373614        0.8183378345        0.8446135901
 H         -0.8139641389        0.4799984260        1.9358337154
 H         -2.2522104359       -0.0729592960        1.3560231572
  13
  -21.0399167400000       6.479850970216971E-004 !mtd1
 C         -1.4457597675       -0.5189321460       -1.1802530572
 C         -0.6716927947       -0.4781553314        0.1345749988
 C          0.7380267588        0.0473937748       -0.0960467481
 O          1.3261313427        0.0177312382       -1.1419450118
 O          1.3040719227        0.5023889334        1.0292812958
 N         -1.3698595924        0.3542834765        1.0981413210
 H         -0.8481603643       -1.0041999508       -1.9461243876
 H         -2.3781408174       -1.0620995597       -1.0516878542
 H         -1.6698770374        0.4958588639       -1.4959188621
 H         -0.5179312554       -1.5193079319        0.4912055170
 H          2.2025912580        0.8185493786        0.8439652110
 H         -2.2516471759       -0.0727652022        1.3568150036
 H         -0.8134279679        0.4814959218        1.9351638352
  13
  -21.0399166400000       6.479165312024925E-004 !gc
 C         -1.4459221504       -0.5174891604       -1.1804940027
 C         -0.6716020543       -0.4783422787        0.1342547425
 C          0.7382405819        0.0472173023       -0.0960507916
 O          1.3283411187        0.0117442446       -1.1406388230
 O          1.3018458503        0.5087428137        1.0278026295
 N         -1.3698188540        0.3524905648        1.0990088839
 H         -2.3779432716       -1.0615413224       -1.0529201701
 H         -1.6709210498        0.4976721523       -1.4943074754
 H         -0.8480266165       -1.0007414748       -1.9472735308
 H         -0.5176714719       -1.5200418176        0.4892903736
 H          2.2006530152        0.8243148825        0.8427406125
 H         -0.8132180220        0.4793873370        1.9359603729
 H         -2.2514677382       -0.0752912857        1.3573456866
  13
  -21.0399166100000       6.478959628693409E-004 !gc
 C         -1.4459679483       -0.5174301466       -1.1805157134
 C         -0.6715918642       -0.4783453050        0.1342315556
 C          0.7382465630        0.0472246452       -0.0960469652
 O          1.3285720347        0.0112598541       -1.1405119948
 O          1.3016351766        0.5092954929        1.0276575001
 N         -1.3698032103        0.3523457093        1.0990802802
 H         -1.6712827227        0.4977303652       -1.4940732153
 H         -0.8479327909       -1.0003203235       -1.9474174648
 H         -2.3778172459       -1.0618053476       -1.0530661330
 H         -0.5176242092       -1.5200904061        0.4891298143
 H          2.2005035141        0.8247228615        0.8426148692
 H         -0.8131950235        0.4791920459        1.9360385445
 H         -2.2514323428       -0.0754963933        1.3573972177
